
  OWA STORM WATER MANAGEMENT MODEL - VERSION v5.1.14 (OWA 2022-07-31)
  --------------------------------------------------------------

  Notes about this full featured model, B variant 
  more notes 
  
  
  *************
  Element Count
  *************
  Number of rain gages ...... 1
  Number of subcatchments ... 4
  Number of nodes ........... 9
  Number of links ........... 9
  Number of pollutants ...... 0
  Number of land uses ....... 0
  
  
  ****************
  Raingage Summary
  ****************
                                                      Data       Recording
  Name                 Data Source                    Type       Interval 
  ------------------------------------------------------------------------
  SCS_24h_Type_I_1in   SCS_24h_Type_I_1in             INTENSITY   15 min.
  
  
  ********************
  Subcatchment Summary
  ********************
  Name                       Area     Width   %Imperv    %Slope Rain Gage            Outlet              
  -----------------------------------------------------------------------------------------------------------
  S1_b                       3.00    500.00     30.00    0.5000 SCS_24h_Type_I_1in   J1_b                
  S2_b                       2.00    500.00    100.00    0.5000 SCS_24h_Type_I_1in   2_b                 
  S3_b                       3.00    500.00    100.00    0.5000 SCS_24h_Type_I_1in   J3_b                
  S4_b                      20.00    500.00     25.00    0.5000 SCS_24h_Type_I_1in   1_b                 
  
  
  ************
  Node Summary
  ************
                                           Invert      Max.    Ponded    External
  Name                 Type                 Elev.     Depth      Area    Inflow  
  -------------------------------------------------------------------------------
  J3_b                 JUNCTION              6.55     15.00       0.0    Yes
  1_b                  JUNCTION             17.00      1.00       0.0
  2_b                  JUNCTION             17.00      1.00       0.0
  3_b                  JUNCTION             16.50      1.00       0.0
  4_b                  JUNCTION             16.00      1.00       0.0
  5_b                  JUNCTION             15.00      1.00       0.0    Yes
  J2_b                 JUNCTION             13.00     15.00       0.0    Yes
  J4_b                 OUTFALL               0.00      0.00       0.0
  J1_b                 STORAGE              13.39     15.00       0.0    Yes
  
  
  ************
  Link Summary
  ************
  Name             From Node        To Node          Type            Length    %Slope Roughness
  ---------------------------------------------------------------------------------------------
  C1:C2_b          J1_b             J2_b             CONDUIT          244.6    0.1602    0.0100
  C2.1_b           J2_b             J3_b             CONDUIT          666.0    0.9690    0.0100
  1_b              1_b              4_b              CONDUIT          400.0    0.2500    0.0100
  2_b              4_b              5_b              CONDUIT          400.0    0.2500    0.0100
  3_b              5_b              J1_b             CONDUIT          400.0    0.4020    0.0100
  4_b              3_b              4_b              CONDUIT          400.0    0.1250    0.0100
  5_b              2_b              5_b              CONDUIT          400.0    0.5000    0.0100
  C2_b             J2_b             J3_b             TYPE4 PUMP  
  C3_b             J3_b             J4_b             WEIR        
  
  
  *********************
  Cross Section Summary
  *********************
                                        Full     Full     Hyd.     Max.   No. of     Full
  Conduit          Shape               Depth     Area     Rad.    Width  Barrels     Flow
  ---------------------------------------------------------------------------------------
  C1:C2_b          CIRCULAR             1.00     0.79     0.25     1.00        1     1.85
  C2.1_b           CIRCULAR             1.00     0.79     0.25     1.00        1     4.56
  1_b              CIRCULAR             1.00     0.79     0.25     1.00        1     2.32
  2_b              CIRCULAR             1.00     0.79     0.25     1.00        1     2.32
  3_b              CIRCULAR             1.00     0.79     0.25     1.00        1     2.94
  4_b              CIRCULAR             1.00     0.79     0.25     1.00        1     1.64
  5_b              CIRCULAR             1.00     0.79     0.25     1.00        1     3.28
  
  
  
  *********************************************************
  NOTE: The summary statistics displayed in this report are
  based on results found at every computational time step,  
  not just on results from each reporting time step.
  *********************************************************
  
  ****************
  Analysis Options
  ****************
  Flow Units ............... CFS
  Process Models:
    Rainfall/Runoff ........ YES
    RDII ................... NO
    Snowmelt ............... NO
    Groundwater ............ NO
    Flow Routing ........... YES
    Ponding Allowed ........ NO
    Water Quality .......... NO
  Infiltration Method ...... HORTON
  Flow Routing Method ...... DYNWAVE
  Surcharge Method ......... EXTRAN
  Starting Date ............ 11/01/2015 00:00:00
  Ending Date .............. 11/04/2015 00:00:00
  Antecedent Dry Days ...... 0.0
  Report Time Step ......... 00:01:00
  Wet Time Step ............ 00:05:00
  Dry Time Step ............ 00:05:00
  Routing Time Step ........ 1.00 sec
  Variable Time Step ....... YES
  Maximum Trials ........... 8
  Number of Threads ........ 1
  Head Tolerance ........... 0.005000 ft
  
  
  *********************
  Control Actions Taken
  *********************

  
  **************************        Volume         Depth
  Runoff Quantity Continuity     acre-feet        inches
  **************************     ---------       -------
  Total Precipitation ......         2.333         1.000
  Evaporation Loss .........         0.000         0.000
  Infiltration Loss ........         1.425         0.611
  Surface Runoff ...........         0.875         0.375
  Final Storage ............         0.034         0.015
  Continuity Error (%) .....        -0.038
  
  
  **************************        Volume        Volume
  Flow Routing Continuity        acre-feet      10^6 gal
  **************************     ---------     ---------
  Dry Weather Inflow .......         0.000         0.000
  Wet Weather Inflow .......         0.875         0.285
  Groundwater Inflow .......         0.000         0.000
  RDII Inflow ..............         0.000         0.000
  External Inflow ..........        23.801         7.756
  External Outflow .........        24.470         7.974
  Flooding Loss ............         0.157         0.051
  Evaporation Loss .........         0.000         0.000
  Exfiltration Loss ........         0.000         0.000
  Initial Stored Volume ....         0.000         0.000
  Final Stored Volume ......         0.046         0.015
  Continuity Error (%) .....         0.009
  
  
  ***************************
  Time-Step Critical Elements
  ***************************
  None
  
  
  ********************************
  Highest Flow Instability Indexes
  ********************************
  All links are stable.
  
  
  *************************
  Routing Time Step Summary
  *************************
  Minimum Time Step           :     0.50 sec
  Average Time Step           :     1.00 sec
  Maximum Time Step           :     1.00 sec
  Percent in Steady State     :     0.00
  Average Iterations per Step :     2.00
  Percent Not Converging      :     0.00
  
  
  ***************************
  Subcatchment Runoff Summary
  ***************************
  
  ------------------------------------------------------------------------------------------------------------------------------
                            Total      Total      Total      Total     Imperv       Perv      Total       Total     Peak  Runoff
                           Precip      Runon       Evap      Infil     Runoff     Runoff     Runoff      Runoff   Runoff   Coeff
  Subcatchment                 in         in         in         in         in         in         in    10^6 gal      CFS
  ------------------------------------------------------------------------------------------------------------------------------
  S1_b                       1.00       0.00       0.00       0.70       0.29       0.00       0.29        0.02     0.55   0.289
  S2_b                       1.00       0.00       0.00       0.00       0.96       0.00       0.96        0.05     1.19   0.964
  S3_b                       1.00       0.00       0.00       0.00       0.96       0.00       0.96        0.08     1.71   0.963
  S4_b                       1.00       0.00       0.00       0.75       0.24       0.00       0.24        0.13     2.61   0.241
  
  
  ******************
  Node Depth Summary
  ******************
  
  ---------------------------------------------------------------------------------
                                 Average  Maximum  Maximum  Time of Max    Reported
                                   Depth    Depth      HGL   Occurrence   Max Depth
  Node                 Type         Feet     Feet     Feet  days hr:min        Feet
  ---------------------------------------------------------------------------------
  J3_b                 JUNCTION     1.15     1.52     8.07     0  10:00        1.52
  1_b                  JUNCTION     0.07     0.95    17.95     0  10:00        0.94
  2_b                  JUNCTION     0.03     0.41    17.41     0  10:00        0.41
  3_b                  JUNCTION     0.00     0.37    16.87     0  10:03        0.36
  4_b                  JUNCTION     0.07     0.84    16.84     0  10:02        0.84
  5_b                  JUNCTION     0.45     1.00    16.00     0  09:26        1.00
  J2_b                 JUNCTION     0.00     0.00    13.00     0  00:00        0.00
  J4_b                 OUTFALL      0.00     0.00     0.00     0  00:00        0.00
  J1_b                 STORAGE      1.47     2.40    15.79     0  10:01        2.40
  
  
  *******************
  Node Inflow Summary
  *******************
  
  -------------------------------------------------------------------------------------------------
                                  Maximum  Maximum                  Lateral       Total        Flow
                                  Lateral    Total  Time of Max      Inflow      Inflow     Balance
                                   Inflow   Inflow   Occurrence      Volume      Volume       Error
  Node                 Type           CFS      CFS  days hr:min    10^6 gal    10^6 gal     Percent
  -------------------------------------------------------------------------------------------------
  J3_b                 JUNCTION      2.71     6.26     0  10:00        2.02        7.98       0.027
  1_b                  JUNCTION      2.61     2.61     0  10:00       0.131       0.131       0.012
  2_b                  JUNCTION      1.19     1.19     0  10:00      0.0523      0.0523      -0.003
  3_b                  JUNCTION      0.00     0.11     0  09:54           0    0.000462       1.329
  4_b                  JUNCTION      0.00     2.56     0  10:00           0       0.131      -0.016
  5_b                  JUNCTION      1.00     4.44     0  10:00        1.94        2.12       0.056
  J2_b                 JUNCTION      1.00     3.55     0  10:01        1.94        5.96       0.000
  J4_b                 OUTFALL       0.00     6.24     0  10:00           0        7.97       0.000
  J1_b                 STORAGE       1.55     2.74     0  09:50        1.96        4.03       0.062
  
  
  **********************
  Node Surcharge Summary
  **********************
  
  Surcharging occurs when water rises above the top of the highest conduit.
  ---------------------------------------------------------------------
                                               Max. Height   Min. Depth
                                   Hours       Above Crown    Below Rim
  Node                 Type      Surcharged           Feet         Feet
  ---------------------------------------------------------------------
  5_b                  JUNCTION        2.49          0.000        0.000
  
  
  *********************
  Node Flooding Summary
  *********************
  
  Flooding refers to all water that overflows a node, whether it ponds or not.
  --------------------------------------------------------------------------
                                                             Total   Maximum
                                 Maximum   Time of Max       Flood    Ponded
                        Hours       Rate    Occurrence      Volume     Depth
  Node                 Flooded       CFS   days hr:min    10^6 gal      Feet
  --------------------------------------------------------------------------
  5_b                     2.48      3.37      0  10:00       0.051     0.000
  
  
  **********************
  Storage Volume Summary
  **********************
  
  --------------------------------------------------------------------------------------------------
                         Average     Avg  Evap Exfil       Maximum     Max    Time of Max    Maximum
                          Volume    Pcnt  Pcnt  Pcnt        Volume    Pcnt     Occurrence    Outflow
  Storage Unit          1000 ft3    Full  Loss  Loss      1000 ft3    Full    days hr:min        CFS
  --------------------------------------------------------------------------------------------------
  J1_b                     1.467      10     0     0         2.398      16       0  10:01       2.55
  
  
  ***********************
  Outfall Loading Summary
  ***********************
  
  -----------------------------------------------------------
                         Flow       Avg       Max       Total
                         Freq      Flow      Flow      Volume
  Outfall Node           Pcnt       CFS       CFS    10^6 gal
  -----------------------------------------------------------
  J4_b                 100.00      4.11      6.24       7.973
  -----------------------------------------------------------
  System               100.00      4.11      6.24       7.973
  
  
  ********************
  Link Flow Summary
  ********************
  
  -----------------------------------------------------------------------------
                                 Maximum  Time of Max   Maximum    Max/    Max/
                                  |Flow|   Occurrence   |Veloc|    Full    Full
  Link                 Type          CFS  days hr:min    ft/sec    Flow   Depth
  -----------------------------------------------------------------------------
  C1:C2_b              CONDUIT      2.55     0  10:01      6.49    1.37    0.50
  C2.1_b               CONDUIT      0.00     0  00:00      0.00    0.00    0.50
  1_b                  CONDUIT      2.56     0  10:00      3.53    1.10    0.88
  2_b                  CONDUIT      2.32     0  10:02      3.07    1.00    0.92
  3_b                  CONDUIT      1.53     0  09:24      3.64    0.52    1.00
  4_b                  CONDUIT      0.15     0  10:06      0.39    0.09    0.60
  5_b                  CONDUIT      1.18     0  10:00      1.99    0.36    0.71
  C2_b                 PUMP         3.55     0  10:01              0.18
  C3_b                 WEIR         6.24     0  10:00                      0.30
  
  
  ***************************
  Flow Classification Summary
  ***************************
  
  -------------------------------------------------------------------------------------
                      Adjusted    ---------- Fraction of Time in Flow Class ---------- 
                       /Actual         Up    Down  Sub   Sup   Up    Down  Norm  Inlet 
  Conduit               Length    Dry  Dry   Dry   Crit  Crit  Crit  Crit  Ltd   Ctrl  
  -------------------------------------------------------------------------------------
  C1:C2_b                 1.00   0.00  0.00  0.00  0.00  1.00  0.00  0.00  0.00  0.00
  C2.1_b                  1.00   0.00  1.00  0.00  0.00  0.00  0.00  0.00  0.00  0.00
  1_b                     1.00   0.00  0.00  0.00  0.99  0.01  0.00  0.00  0.82  0.00
  2_b                     1.00   0.00  0.00  0.00  1.00  0.00  0.00  0.00  1.00  0.00
  3_b                     1.00   0.00  0.00  0.00  1.00  0.00  0.00  0.00  0.87  0.00
  4_b                     1.00   0.00  0.90  0.00  0.10  0.00  0.00  0.00  0.86  0.00
  5_b                     1.00   0.00  0.03  0.00  0.97  0.00  0.00  0.00  1.00  0.00
  
  
  *************************
  Conduit Surcharge Summary
  *************************
  
  ----------------------------------------------------------------------------
                                                           Hours        Hours 
                         --------- Hours Full --------   Above Full   Capacity
  Conduit                Both Ends  Upstream  Dnstream   Normal Flow   Limited
  ----------------------------------------------------------------------------
  C1:C2_b                     0.01     71.56      0.01     71.40         0.01
  1_b                         0.01      0.01      0.01      0.10         0.01
  2_b                         0.01      0.01      2.48      0.02         0.01
  3_b                         2.48      2.48     71.56      0.01         0.01
  5_b                         0.01      0.01      2.48      0.01         0.01
  
  
  ***************
  Pumping Summary
  ***************
  
  ---------------------------------------------------------------------------------------------------------
                                                  Min       Avg       Max     Total     Power    % Time Off
                        Percent   Number of      Flow      Flow      Flow    Volume     Usage    Pump Curve
  Pump                 Utilized   Start-Ups       CFS       CFS       CFS  10^6 gal     Kw-hr    Low   High
  ---------------------------------------------------------------------------------------------------------
  C2_b                   100.00           1      0.00      3.07      3.55     5.958     99.22    0.0    0.0
  

  Analysis begun on:  Thu Dec 29 22:48:15 2022
  Analysis ended on:  Thu Dec 29 22:48:17 2022
  Total elapsed time: 00:00:02